
#======================================================================
# CRYSTAL DATA
#----------------------------------------------------------------------
data_VESTA_phase_1

_chemical_name_common                  'Wien97 struct file generated by XCrySD'
_cell_length_a                         7.334701
_cell_length_b                         7.334701
_cell_length_c                         25.000000
_cell_angle_alpha                      90.000000
_cell_angle_beta                       90.000000
_cell_angle_gamma                      120.000000
_cell_volume                           1164.757244
_space_group_name_H-M_alt              'P 1'
_space_group_IT_number                 1

loop_
_space_group_symop_operation_xyz
   'x, y, z'

loop_
   _atom_site_label
   _atom_site_occupancy
   _atom_site_fract_x
   _atom_site_fract_y
   _atom_site_fract_z
   _atom_site_adp_type
   _atom_site_U_iso_or_equiv
   _atom_site_type_symbol
   N1         1.0     0.000102     0.000022     0.404880    Uiso  ? N
   N2         1.0     0.000104     0.333464     0.404880    Uiso  ? N
   N3         1.0     0.666663     0.000023     0.404879    Uiso  ? N
   C1         1.0     0.222400     0.111264     0.425420    Uiso  ? C
   C2         1.0     0.222403     0.444519     0.425421    Uiso  ? C
   C3         1.0     0.555608     0.111265     0.425421    Uiso  ? C
   C4         1.0     0.555608     0.777724     0.425419    Uiso  ? C
   C5         1.0     0.222276     0.111308     0.489185    Uiso  ? C
   C6         1.0     0.222273     0.444349     0.489185    Uiso  ? C
   C7         1.0     0.555776     0.111308     0.489186    Uiso  ? C
   C8         1.0     0.555775     0.777852     0.489185    Uiso  ? C
   C9         1.0     0.000039     0.000086     0.509891    Uiso  ? C
   C10        1.0     0.000040     0.333338     0.509891    Uiso  ? C
   C11        1.0     0.666788     0.000086     0.509891    Uiso  ? C
   C12        1.0     0.000733     0.999396     0.573636    Uiso  ? C
   C13        1.0     0.000731     0.334722     0.573636    Uiso  ? C
   C14        1.0     0.665407     0.999395     0.573635    Uiso  ? C
   N4         1.0     0.215131     0.106034     0.593927    Uiso  ? N
   N5         1.0     0.215131     0.442483     0.593927    Uiso  ? N
   N6         1.0     0.557646     0.106033     0.593926    Uiso  ? N
   N7         1.0     0.894093     0.442481     0.593927    Uiso  ? N
   N8         1.0     0.894094     0.784999     0.593927    Uiso  ? N
   N9         1.0     0.999994     0.666687     0.404965    Uiso  ? N
   C15        1.0     0.222289     0.777834     0.425389    Uiso  ? C
   C16        1.0     0.222290     0.777836     0.489211    Uiso  ? C
   C17        1.0     0.999898     0.666641     0.510119    Uiso  ? C
   C18        1.0     0.000930     0.667157     0.573670    Uiso  ? C
   C19        1.0     0.332968     0.999194     0.573670    Uiso  ? C
   C20        1.0     0.332970     0.667159     0.573670    Uiso  ? C
   N10        1.0     0.222291     0.777837     0.594079    Uiso  ? N
   N11        1.0     0.333437     0.000130     0.404965    Uiso  ? N
   C21        1.0     0.333486     0.000227     0.510118    Uiso  ? C
   N12        1.0     0.333859     0.333621     0.405204    Uiso  ? N
   N13        1.0     0.666503     0.333621     0.405203    Uiso  ? N
   N14        1.0     0.666504     0.666265     0.405203    Uiso  ? N
   C22        1.0     0.555622     0.444504     0.426052    Uiso  ? C
   C23        1.0     0.555621     0.444503     0.490568    Uiso  ? C
   C24        1.0     0.332139     0.332762     0.510698    Uiso  ? C
   C25        1.0     0.667364     0.332763     0.510698    Uiso  ? C
   C26        1.0     0.667362     0.667985     0.510698    Uiso  ? C
   C27        1.0     0.315784     0.324585     0.573932    Uiso  ? C
   C28        1.0     0.675543     0.324582     0.573932    Uiso  ? C
   C29        1.0     0.675542     0.684344     0.573933    Uiso  ? C
   Si1        1.0     0.555622     0.444502     0.613829    Uiso  ? Si
   N15        1.0     0.333436     0.666688     0.404965    Uiso  ? N
   C30        1.0     0.333486     0.666642     0.510118    Uiso  ? C
   N16        1.0     0.557646     0.784998     0.593926    Uiso  ? N
   N17        1.0     0.894093     0.442481     0.593927    Uiso  ? N
   N18        1.0     0.894094     0.784999     0.593927    Uiso  ? N
   C31        1.0     0.888956     0.111169     0.425308    Uiso  ? C
   C32        1.0     0.888957     0.111170     0.489001    Uiso  ? C
   N19        1.0     0.888957     0.111171     0.594387    Uiso  ? N
   C33        1.0     0.888858     0.444518     0.425421    Uiso  ? C
   C34        1.0     0.888859     0.777722     0.425421    Uiso  ? C
   C35        1.0     0.888818     0.444350     0.489185    Uiso  ? C
   C36        1.0     0.888818     0.777852     0.489186    Uiso  ? C
