
#======================================================================
# CRYSTAL DATA
#----------------------------------------------------------------------
data_VESTA_phase_1

_chemical_name_common                  'Wien97 struct file generated by XCrySD'
_cell_length_a                         7.354500
_cell_length_b                         7.354498
_cell_length_c                         24.999998
_cell_angle_alpha                      90.000000
_cell_angle_beta                       90.000000
_cell_angle_gamma                      120.000015
_cell_volume                           1171.053431
_space_group_name_H-M_alt              'P 1'
_space_group_IT_number                 1

loop_
_space_group_symop_operation_xyz
   'x, y, z'

loop_
   _atom_site_label
   _atom_site_occupancy
   _atom_site_fract_x
   _atom_site_fract_y
   _atom_site_fract_z
   _atom_site_adp_type
   _atom_site_U_iso_or_equiv
   _atom_site_type_symbol
   N1         1.0     0.999832     0.999634     0.406648    Uiso  ? N
   N2         1.0     0.333700     0.333502     0.406648    Uiso  ? N
   N3         1.0     0.326890     0.328751     0.592101    Uiso  ? N
   N4         1.0     0.326890     0.664807     0.592101    Uiso  ? N
   N5         1.0     0.668527     0.328752     0.592101    Uiso  ? N
   N6         1.0     0.668528     1.006445     0.592101    Uiso  ? N
   N7         1.0     1.004583     0.664807     0.592101    Uiso  ? N
   N8         1.0     1.004583     1.006444     0.592101    Uiso  ? N
   C1         1.0     0.222240     0.111095     0.489112    Uiso  ? C
   C2         1.0     0.222319     0.111015     0.426733    Uiso  ? C
   C3         1.0     0.222320     0.777970     0.426733    Uiso  ? C
   C4         1.0     0.111469     0.221865     0.571790    Uiso  ? C
   C5         1.0     0.111470     0.556272     0.571790    Uiso  ? C
   C6         1.0     0.777063     0.221866     0.571790    Uiso  ? C
   C7         1.0     0.111016     0.222319     0.509549    Uiso  ? C
   N9         1.0     0.000001     0.333333     0.406590    Uiso  ? N
   C8         1.0     0.222629     0.444648     0.489027    Uiso  ? C
   C9         1.0     0.888686     0.110707     0.489027    Uiso  ? C
   C10        1.0     0.888687     0.444649     0.489027    Uiso  ? C
   C11        1.0     0.222589     0.444627     0.426781    Uiso  ? C
   C12        1.0     0.888706     0.110745     0.426781    Uiso  ? C
   C13        1.0     0.888706     0.444628     0.426781    Uiso  ? C
   C14        1.0     0.111017     0.555365     0.509549    Uiso  ? C
   C15        1.0     0.777969     0.222319     0.509549    Uiso  ? C
   N10        1.0     0.999833     0.666864     0.406648    Uiso  ? N
   N11        1.0     0.333701     0.666864     0.406648    Uiso  ? N
   N12        1.0     0.666470     0.333503     0.406648    Uiso  ? N
   N13        1.0     0.333334     1.000001     0.592485    Uiso  ? N
   C16        1.0     0.222241     0.777813     0.489112    Uiso  ? C
   C17        1.0     0.555522     0.111095     0.489112    Uiso  ? C
   C18        1.0     0.112117     0.889392     0.572169    Uiso  ? C
   C19        1.0     0.443942     0.221219     0.572170    Uiso  ? C
   C20        1.0     0.443943     0.889392     0.572170    Uiso  ? C
   C21        1.0     0.111118     0.888892     0.509977    Uiso  ? C
   N14        1.0     0.333334     0.000000     0.406418    Uiso  ? N
   C22        1.0     0.555363     0.111015     0.426734    Uiso  ? C
   C23        1.0     0.444442     0.222218     0.509978    Uiso  ? C
   C24        1.0     0.444443     0.888892     0.509977    Uiso  ? C
   P1         1.0     0.666667     0.666669     0.615004    Uiso  ? P
   C25        1.0     0.555792     0.444918     0.489835    Uiso  ? C
   C26        1.0     0.555793     0.777542     0.489835    Uiso  ? C
   C27        1.0     0.888418     0.777543     0.489835    Uiso  ? C
   C28        1.0     0.555676     0.444683     0.427136    Uiso  ? C
   C29        1.0     0.555676     0.777659     0.427136    Uiso  ? C
   C30        1.0     0.888651     0.777659     0.427136    Uiso  ? C
   C31        1.0     0.431769     0.549218     0.573154    Uiso  ? C
   C32        1.0     0.784116     0.549219     0.573154    Uiso  ? C
   C33        1.0     0.784117     0.901566     0.573154    Uiso  ? C
   C34        1.0     0.444522     0.555595     0.510680    Uiso  ? C
   C35        1.0     0.777740     0.555596     0.510680    Uiso  ? C
   C36        1.0     0.777740     0.888813     0.510680    Uiso  ? C
   N15        1.0     0.666469     0.999634     0.406648    Uiso  ? N
   N16        1.0     1.000000     0.333335     0.592282    Uiso  ? N
   N17        1.0     0.666668     0.666667     0.406892    Uiso  ? N
