
#======================================================================
# CRYSTAL DATA
#----------------------------------------------------------------------
data_VESTA_phase_1

_chemical_name_common                  'Wien97 struct file generated by XCrySD'
_cell_length_a                         7.269300
_cell_length_b                         7.269300
_cell_length_c                         25.000000
_cell_angle_alpha                      90.000000
_cell_angle_beta                       90.000000
_cell_angle_gamma                      120.000000
_cell_volume                           1144.078647
_space_group_name_H-M_alt              'P 1'
_space_group_IT_number                 1

loop_
_space_group_symop_operation_xyz
   'x, y, z'

loop_
   _atom_site_label
   _atom_site_occupancy
   _atom_site_fract_x
   _atom_site_fract_y
   _atom_site_fract_z
   _atom_site_adp_type
   _atom_site_U_iso_or_equiv
   _atom_site_type_symbol
   N1         1.0     0.999996     0.999995     0.403631    Uiso  ? N
   C1         1.0     0.222218     0.111102     0.424074    Uiso  ? C
   C2         1.0     0.222218     0.111102     0.487989    Uiso  ? C
   C3         1.0     0.999999     0.999998     0.508959    Uiso  ? C
   C4         1.0     0.999998     0.999997     0.572879    Uiso  ? C
   N2         1.0     0.222219     0.111101     0.593328    Uiso  ? N
   N3         1.0     0.999995     0.333326     0.403628    Uiso  ? N
   C5         1.0     0.222215     0.444436     0.424073    Uiso  ? C
   C6         1.0     0.222210     0.444433     0.487990    Uiso  ? C
   C7         1.0     0.999995     0.333325     0.508966    Uiso  ? C
   C8         1.0     0.999997     0.333325     0.572885    Uiso  ? C
   N4         1.0     0.222234     0.444443     0.593326    Uiso  ? N
   N5         1.0     0.999995     0.666658     0.403632    Uiso  ? N
   C9         1.0     0.222218     0.777773     0.424074    Uiso  ? C
   C10        1.0     0.222218     0.777770     0.487989    Uiso  ? C
   C11        1.0     0.999999     0.666655     0.508960    Uiso  ? C
   C12        1.0     0.999998     0.666653     0.572879    Uiso  ? C
   N6         1.0     0.222219     0.777769     0.593328    Uiso  ? N
   N7         1.0     0.333328     0.999993     0.403629    Uiso  ? N
   C13        1.0     0.555548     0.111103     0.424073    Uiso  ? C
   C14        1.0     0.555549     0.111103     0.487989    Uiso  ? C
   C15        1.0     0.333329     0.999992     0.508967    Uiso  ? C
   C16        1.0     0.333327     0.999989     0.572888    Uiso  ? C
   N8         1.0     0.555550     0.111099     0.593328    Uiso  ? N
   N9         1.0     0.333327     0.333326     0.403631    Uiso  ? N
   C17        1.0     0.555551     0.444437     0.424071    Uiso  ? C
   C18        1.0     0.555550     0.444431     0.487985    Uiso  ? C
   C19        1.0     0.333322     0.333321     0.508960    Uiso  ? C
   C20        1.0     0.333323     0.333322     0.572879    Uiso  ? C
   N10        1.0     0.555550     0.444433     0.593286    Uiso  ? N
   N11        1.0     0.333327     0.666659     0.403631    Uiso  ? N
   C21        1.0     0.555551     0.777773     0.424071    Uiso  ? C
   C22        1.0     0.555549     0.777772     0.487985    Uiso  ? C
   C23        1.0     0.333323     0.666655     0.508959    Uiso  ? C
   C24        1.0     0.333325     0.666653     0.572879    Uiso  ? C
   N12        1.0     0.555552     0.777769     0.593286    Uiso  ? N
   N13        1.0     0.666664     0.999995     0.403632    Uiso  ? N
   C25        1.0     0.888887     0.111107     0.424074    Uiso  ? C
   C26        1.0     0.888887     0.111109     0.487989    Uiso  ? C
   C27        1.0     0.666665     0.999999     0.508959    Uiso  ? C
   C28        1.0     0.666667     0.999996     0.572879    Uiso  ? C
   N14        1.0     0.888877     0.111085     0.593326    Uiso  ? N
   N15        1.0     0.666664     0.333327     0.403632    Uiso  ? N
   C29        1.0     0.888885     0.444436     0.424074    Uiso  ? C
   C30        1.0     0.888887     0.444433     0.487990    Uiso  ? C
   C31        1.0     0.666664     0.333322     0.508960    Uiso  ? C
   C32        1.0     0.666667     0.333323     0.572881    Uiso  ? C
   N16        1.0     0.888877     0.444442     0.593327    Uiso  ? N
   N17        1.0     0.666662     0.666660     0.403628    Uiso  ? N
   C33        1.0     0.888885     0.777772     0.424071    Uiso  ? C
   C34        1.0     0.888890     0.777773     0.487985    Uiso  ? C
   C35        1.0     0.666662     0.666659     0.508950    Uiso  ? C
   C36        1.0     0.666663     0.666657     0.572859    Uiso  ? C
   N18        1.0     0.888887     0.777769     0.593286    Uiso  ? N
   H1         1.0     0.666827     0.667035     0.702410    Uiso  ? H
