
#======================================================================
# CRYSTAL DATA
#----------------------------------------------------------------------
data_VESTA_phase_1

_chemical_name_common                  'Wien97 struct file generated by XCrySD'
_cell_length_a                         7.302900
_cell_length_b                         7.302898
_cell_length_c                         25.000004
_cell_angle_alpha                      90.000000
_cell_angle_beta                       90.000000
_cell_angle_gamma                      120.000015
_cell_volume                           1154.678860
_space_group_name_H-M_alt              'P 1'
_space_group_IT_number                 1

loop_
_space_group_symop_operation_xyz
   'x, y, z'

loop_
   _atom_site_label
   _atom_site_occupancy
   _atom_site_fract_x
   _atom_site_fract_y
   _atom_site_fract_z
   _atom_site_adp_type
   _atom_site_U_iso_or_equiv
   _atom_site_type_symbol
   N1         1.0     0.000004     0.999997     0.405216    Uiso  ? N
   N2         1.0     0.333324     0.333326     0.591534    Uiso  ? N
   C1         1.0     0.222216     0.111104     0.488001    Uiso  ? C
   C2         1.0     0.222218     0.111107     0.425480    Uiso  ? C
   C3         1.0     0.111086     0.222206     0.571313    Uiso  ? C
   C4         1.0     0.111098     0.222217     0.508794    Uiso  ? C
   N3         1.0     0.000005     0.333339     0.405216    Uiso  ? N
   N4         1.0     0.333340     0.666662     0.591600    Uiso  ? N
   C5         1.0     0.222216     0.444444     0.488002    Uiso  ? C
   C6         1.0     0.222221     0.444445     0.425479    Uiso  ? C
   C7         1.0     0.111112     0.555555     0.571331    Uiso  ? C
   C8         1.0     0.111113     0.555556     0.508807    Uiso  ? C
   N5         1.0     0.000002     0.666669     0.405222    Uiso  ? N
   N6         1.0     0.333341     1.000012     0.591598    Uiso  ? N
   C9         1.0     0.222225     0.777776     0.488008    Uiso  ? C
   C10        1.0     0.222222     0.777779     0.425485    Uiso  ? C
   C11        1.0     0.111111     0.888891     0.571332    Uiso  ? C
   C12        1.0     0.111113     0.888889     0.508807    Uiso  ? C
   N7         1.0     0.333333     0.999998     0.405222    Uiso  ? N
   N8         1.0     0.666675     0.333327     0.591533    Uiso  ? N
   C13        1.0     0.555559     0.111105     0.488000    Uiso  ? C
   C14        1.0     0.555557     0.111107     0.425481    Uiso  ? C
   C15        1.0     0.444439     0.222207     0.571311    Uiso  ? C
   C16        1.0     0.777795     0.555563     0.571311    Uiso  ? C
   C17        1.0     0.444438     0.222206     0.508791    Uiso  ? C
   N9         1.0     0.333331     0.333330     0.405221    Uiso  ? N
   N10        1.0     0.666676     0.666678     0.591534    Uiso  ? N
   C18        1.0     0.555558     0.444444     0.488002    Uiso  ? C
   C19        1.0     0.555557     0.444445     0.425483    Uiso  ? C
   C20        1.0     0.444438     0.555564     0.571312    Uiso  ? C
   C21        1.0     0.444436     0.555566     0.508790    Uiso  ? C
   N11        1.0     0.333334     0.666668     0.405221    Uiso  ? N
   N12        1.0     0.666670     1.000003     0.591592    Uiso  ? N
   C22        1.0     0.555557     0.777786     0.488002    Uiso  ? C
   C23        1.0     0.555557     0.777781     0.425479    Uiso  ? C
   C24        1.0     0.444446     0.888889     0.571331    Uiso  ? C
   C25        1.0     0.444445     0.888889     0.508807    Uiso  ? C
   N13        1.0     0.666662     0.999995     0.405216    Uiso  ? N
   N14        1.0     1.000000     0.333331     0.591592    Uiso  ? N
   C26        1.0     0.888890     0.111111     0.487992    Uiso  ? C
   C27        1.0     0.888891     0.111111     0.425474    Uiso  ? C
   C28        1.0     0.777789     0.222212     0.571315    Uiso  ? C
   C29        1.0     0.777786     0.222215     0.508795    Uiso  ? C
   N15        1.0     0.666669     0.333332     0.405221    Uiso  ? N
   N16        1.0     0.999991     0.666661     0.591598    Uiso  ? N
   C30        1.0     0.888896     0.444443     0.488000    Uiso  ? C
   C31        1.0     0.888895     0.444445     0.425481    Uiso  ? C
   C32        1.0     0.777796     0.555564     0.508791    Uiso  ? C
   N17        1.0     0.666671     0.666671     0.405221    Uiso  ? N
   N18        1.0     1.000004     0.999999     0.591591    Uiso  ? N
   C33        1.0     0.888897     0.777786     0.488001    Uiso  ? C
   C34        1.0     0.888895     0.777784     0.425480    Uiso  ? C
   C35        1.0     0.777795     0.888915     0.571313    Uiso  ? C
   C36        1.0     0.777785     0.888904     0.508794    Uiso  ? C
   H1         1.0     0.555520     0.444482     0.699378    Uiso  ? H
