
#======================================================================
# CRYSTAL DATA
#----------------------------------------------------------------------
data_VESTA_phase_1

_chemical_name_common                  'Wien97 struct file generated by XCrySD'
_cell_length_a                         7.302900
_cell_length_b                         7.302898
_cell_length_c                         25.000004
_cell_angle_alpha                      90.000000
_cell_angle_beta                       90.000000
_cell_angle_gamma                      120.000015
_cell_volume                           1154.678860
_space_group_name_H-M_alt              'P 1'
_space_group_IT_number                 1

loop_
_space_group_symop_operation_xyz
   'x, y, z'

loop_
   _atom_site_label
   _atom_site_occupancy
   _atom_site_fract_x
   _atom_site_fract_y
   _atom_site_fract_z
   _atom_site_adp_type
   _atom_site_U_iso_or_equiv
   _atom_site_type_symbol
   N1         1.0     0.000000     0.000000     0.406817    Uiso  ? N
   N2         1.0     0.333334     0.333334     0.593183    Uiso  ? N
   N3         1.0     1.000000     0.333334     0.406816    Uiso  ? N
   N4         1.0     0.333334     0.666668     0.593184    Uiso  ? N
   N5         1.0     0.000000     0.666667     0.406816    Uiso  ? N
   N6         1.0     0.333334     1.000002     0.593183    Uiso  ? N
   N7         1.0     0.333334     0.000000     0.406816    Uiso  ? N
   N8         1.0     0.666668     0.333334     0.593184    Uiso  ? N
   N9         1.0     0.333334     0.333334     0.406816    Uiso  ? N
   N10        1.0     0.666667     0.666667     0.593183    Uiso  ? N
   N11        1.0     0.333334     0.666668     0.406816    Uiso  ? N
   N12        1.0     0.666667     1.000002     0.593183    Uiso  ? N
   N13        1.0     0.666667     0.000000     0.406816    Uiso  ? N
   N14        1.0     1.000002     0.333334     0.593183    Uiso  ? N
   N15        1.0     0.666668     0.333334     0.406816    Uiso  ? N
   N16        1.0     1.000002     0.666667     0.593183    Uiso  ? N
   N17        1.0     0.666667     0.666667     0.406816    Uiso  ? N
   N18        1.0     1.000002     1.000002     0.593183    Uiso  ? N
   C1         1.0     0.222224     0.111112     0.489602    Uiso  ? C
   C2         1.0     0.111112     0.222224     0.510398    Uiso  ? C
   C3         1.0     0.222223     0.444446     0.489601    Uiso  ? C
   C4         1.0     0.111112     0.555557     0.510398    Uiso  ? C
   C5         1.0     0.222223     0.777779     0.489601    Uiso  ? C
   C6         1.0     0.111112     0.888890     0.510398    Uiso  ? C
   C7         1.0     0.555557     0.111112     0.489602    Uiso  ? C
   C8         1.0     0.444446     0.222223     0.510398    Uiso  ? C
   C9         1.0     0.555557     0.444445     0.489602    Uiso  ? C
   C10        1.0     0.444445     0.555557     0.510398    Uiso  ? C
   C11        1.0     0.555556     0.777779     0.489601    Uiso  ? C
   C12        1.0     0.444445     0.888890     0.510398    Uiso  ? C
   C13        1.0     0.888890     0.111112     0.489602    Uiso  ? C
   C14        1.0     0.777779     0.222223     0.510398    Uiso  ? C
   C15        1.0     0.888890     0.444445     0.489602    Uiso  ? C
   C16        1.0     0.777779     0.555556     0.510398    Uiso  ? C
   C17        1.0     0.888890     0.777778     0.489602    Uiso  ? C
   C18        1.0     0.777778     0.888890     0.510398    Uiso  ? C
   C19        1.0     0.222223     0.111112     0.427082    Uiso  ? C
   C20        1.0     0.111112     0.222223     0.572918    Uiso  ? C
   C21        1.0     0.222223     0.444446     0.427081    Uiso  ? C
   C22        1.0     0.111112     0.555557     0.572918    Uiso  ? C
   C23        1.0     0.222223     0.777779     0.427081    Uiso  ? C
   C24        1.0     0.111112     0.888890     0.572918    Uiso  ? C
   C25        1.0     0.555556     0.111112     0.427081    Uiso  ? C
   C26        1.0     0.444446     0.222223     0.572918    Uiso  ? C
   C27        1.0     0.555557     0.444445     0.427081    Uiso  ? C
   C28        1.0     0.444445     0.555557     0.572918    Uiso  ? C
   C29        1.0     0.555556     0.777779     0.427081    Uiso  ? C
   C30        1.0     0.444445     0.888890     0.572918    Uiso  ? C
   C31        1.0     0.888890     0.111112     0.427082    Uiso  ? C
   C32        1.0     0.777779     0.222223     0.572918    Uiso  ? C
   C33        1.0     0.888890     0.444445     0.427081    Uiso  ? C
   C34        1.0     0.777779     0.555556     0.572918    Uiso  ? C
   C35        1.0     0.888890     0.777778     0.427082    Uiso  ? C
   C36        1.0     0.777778     0.888890     0.572918    Uiso  ? C
